$ ----------------------------------------------------------------------
$ Simply-supported square plate under uniform pressure -- SOL 101
$
$ Geometry: 10 in x 10 in plate, t = 0.1 in.
$ Mesh: 5x5 CQUAD4 panel (36 nodes, 25 elements).
$ Material: Al 6061-T6 (E=9.9e6 psi, nu=0.33).
$ Loads: PLOAD2 uniform pressure 1.0 psi pushing in +Z.
$ Constraints: SPC1 123 on all four edges (simply supported -- T1/T2/T3
$              free of rotational restraint).
$
$ Analytical centre deflection (thin plate, Kirchhoff, SS-SS-SS-SS):
$   delta_c = alpha * q * a^4 / D
$   D = E*t^3 / (12*(1-nu^2)) = 9.9e6 * 0.001 / (12*0.8911)
$     = 925.8 lb*in
$   alpha (a/b=1, SS-SS-SS-SS) = 0.00406
$   delta_c = 0.00406 * 1.0 * 10000 / 925.8
$           = 0.0438 in   (centre node 21 T3 should land around this)
$ ----------------------------------------------------------------------
SOL 101
CEND
TITLE = Simply-supported plate - SOL 101 (uniform pressure)
SUBCASE 1
  LOAD = 1
  SPC = 1
  DISPLACEMENT(PRINT,PLOT) = ALL
  STRESS(PRINT,PLOT) = ALL
BEGIN BULK
$
$ -------- Material --------
MAT1           1  9.9+6          .33    .098
$
$ -------- Property (shell, t = 0.1 in) --------
PSHELL         1       1     0.1       1               1
$
$ -------- Nodes: 6 x 6 grid, spacing = 2 in --------
$ Layout (i=column, j=row); GID = (j-1)*6 + i  (1-based)
$
GRID           1              0.      0.      0.
GRID           2              2.      0.      0.
GRID           3              4.      0.      0.
GRID           4              6.      0.      0.
GRID           5              8.      0.      0.
GRID           6             10.      0.      0.
GRID           7              0.      2.      0.
GRID           8              2.      2.      0.
GRID           9              4.      2.      0.
GRID          10              6.      2.      0.
GRID          11              8.      2.      0.
GRID          12             10.      2.      0.
GRID          13              0.      4.      0.
GRID          14              2.      4.      0.
GRID          15              4.      4.      0.
GRID          16              6.      4.      0.
GRID          17              8.      4.      0.
GRID          18             10.      4.      0.
GRID          19              0.      6.      0.
GRID          20              2.      6.      0.
$ ... 16 like lines cut
$
$ -------- Elements: CQUAD4 5x5 panel --------
CQUAD4         1       1       1       2       8       7
CQUAD4         2       1       2       3       9       8
CQUAD4         3       1       3       4      10       9
CQUAD4         4       1       4       5      11      10
CQUAD4         5       1       5       6      12      11
CQUAD4         6       1       7       8      14      13
CQUAD4         7       1       8       9      15      14
CQUAD4         8       1       9      10      16      15
CQUAD4         9       1      10      11      17      16
CQUAD4        10       1      11      12      18      17
CQUAD4        11       1      13      14      20      19
CQUAD4        12       1      14      15      21      20
CQUAD4        13       1      15      16      22      21
CQUAD4        14       1      16      17      23      22
CQUAD4        15       1      17      18      24      23
CQUAD4        16       1      19      20      26      25
CQUAD4        17       1      20      21      27      26
CQUAD4        18       1      21      22      28      27
CQUAD4        19       1      22      23      29      28
CQUAD4        20       1      23      24      30      29
$ ... 5 like lines cut
$
$ -------- Constraints: SPC1 on all four edges (TZ free of rot) --------
$ Bottom edge (Y=0): nodes 1-6
SPC1           1     123       1       2       3       4       5       6
$ Top edge (Y=10): nodes 31-36
SPC1           1     123      31      32      33      34      35      36
$ Left edge (X=0): nodes 7,13,19,25
SPC1           1     123       7      13      19      25
$ Right edge (X=10): nodes 12,18,24,30
SPC1           1     123      12      18      24      30
$
$ -------- Loads: PLOAD2 uniform 1 psi pressure on all 25 elements --------
PLOAD2         1     1.0       1    THRU      25
$
ENDDATA
